*LTspice
*
*TLP290
*Voltage:3.75Kv; Ctr Min:50%; VCE V(Br)Ceo:80V; AC.
*AE01009290
*
*netlist
.include TLP290.cir
*
*params
.param RK=210
.param RC=470
*
.param VSOURCE=5
.param freq=500
.param voff=0
.param vampl=5
.param delay=0
.param repeat=4
*
.param cycle=1/freq
.param x_base=(cycle*repeat)+delay
*
*transient response
.tran 0 {x_base} 0 ;uic startup
*

